psse/psse-model/src/test/resources/IEEE_14_bus_whitespaceAsDelimiter.raw
 0     100.00  33  0  0  60.00       / October 01, 2013 18:37:53
 08/19/93 UW ARCHIVE           100.0  1962 W IEEE 14 Bus Test Case

    1 'Bus 1       '  138.0000 3    1    1    1 1.06000    0.0000
    2 'Bus 2       '  138.0000 2    1    1    1 1.04500   -4.9826
    3 'Bus 3       '  138.0000 2    1    1    1 1.01000  -12.7250
    4 'Bus 4       '  138.0000 1    1    1    1 1.01767  -10.3128
    5 'Bus 5       '  138.0000 1    1    1    1 1.01951   -8.7738
    6 'Bus 6       '  138.0000 2    1    1    1 1.07000  -14.2209
    7 'Bus 7       '  138.0000 1    1    1    1 1.06152  -13.3596
    8 'Bus 8       '  138.0000 2    1    1    1 1.09000  -13.3596
    9 'Bus 9       '  138.0000 1    1    1    1 1.05593  -14.9385
   10 'Bus 10      '  138.0000 1    1    1    1 1.05099  -15.0972
   11 'Bus 11      '  138.0000 1    1    1    1 1.05691  -14.7906
   12 'Bus 12      '  138.0000 1    1    1    1 1.05519  -15.0755
   13 'Bus 13      '  138.0000 1    1    1    1 1.05038  -15.1562
   14 'Bus 14      '  138.0000 1    1    1    1 1.03553  -16.0336
0 / END OF BUS DATA, BEGIN LOAD DATA
    2 '1 ' 1    1    1     21.700     12.700      0.000      0.000      0.000     -0.000    1 1
    3 '1 ' 1    1    1     94.200     19.000      0.000      0.000      0.000     -0.000    1 1
    4 '1 ' 1    1    1     47.800     -3.900      0.000      0.000      0.000     -0.000    1 1
    5 '1 ' 1    1    1      7.600      1.600      0.000      0.000      0.000     -0.000    1 1
    6 '1 ' 1    1    1     11.200      7.500      0.000      0.000      0.000     -0.000    1 1
    9 '1 ' 1    1    1     29.500     16.600      0.000      0.000      0.000     -0.000    1 1
   10 '1 ' 1    1    1      9.000      5.800      0.000      0.000      0.000     -0.000    1 1
   11 '1 ' 1    1    1      3.500      1.800      0.000      0.000      0.000     -0.000    1 1
   12 '1 ' 1    1    1      6.100      1.600      0.000      0.000      0.000     -0.000    1 1
   13 '1 ' 1    1    1     13.500      5.800      0.000      0.000      0.000     -0.000    1 1
   14 '1 ' 1    1    1     14.900      5.000      0.000      0.000      0.000     -0.000    1 1
0 / END OF LOAD DATA, BEGIN FIXED SHUNT DATA
     9 ' 1'  1      0.000     19.000
0 / END OF FIXED SHUNT DATA, BEGIN GENERATOR DATA
    1 '1 '    232.392    -16.549      0.000      0.000 1.06000     0    615.000    0.00000    1.00000    0.00000    0.00000 1.00000 1   100.0  10000.000 -10000.000    1 1.0000    0 1.0000    0 1.0000    0 1.0000 0  1.0000
    2 '1 '     40.000     43.556     50.000    -40.000 1.04500     0     60.000    0.00000    1.00000    0.00000    0.00000 1.00000 1   100.0  10000.000 -10000.000    1 1.0000    0 1.0000    0 1.0000    0 1.0000 0  1.0000
    3 '1 '      0.000     25.075     40.000      0.000 1.01000     0     60.000    0.00000    1.00000    0.00000    0.00000 1.00000 1   100.0  10000.000 -10000.000    1 1.0000    0 1.0000    0 1.0000    0 1.0000 0  1.0000
    6 '1 '      0.000     12.730     24.000     -6.000 1.07000     0     25.000    0.00000    1.00000    0.00000    0.00000 1.00000 1   100.0  10000.000 -10000.000    1 1.0000    0 1.0000    0 1.0000    0 1.0000 0  1.0000
    8 '1 '      0.000     17.623     24.000     -6.000 1.09000     0     25.000    0.00000    1.00000    0.00000    0.00000 1.00000 1   100.0  10000.000 -10000.000    1 1.0000    0 1.0000    0 1.0000    0 1.0000 0  1.0000
0 / END OF GENERATOR DATA, BEGIN BRANCH DATA
    1      2 '1 '  0.01938  0.05917 0.05280    0.00    0.00    0.00   0.00000   0.00000   0.00000   0.00000 1 1    0.0    1 1.0000    0 1.0000    0 1.0000    0 1.0000
    1      5 '1 '  0.05403  0.22304 0.04920    0.00    0.00    0.00   0.00000   0.00000   0.00000   0.00000 1 1    0.0    1 1.0000    0 1.0000    0 1.0000    0 1.0000
    2      3 '1 '  0.04699  0.19797 0.04380    0.00    0.00    0.00   0.00000   0.00000   0.00000   0.00000 1 1    0.0    1 1.0000    0 1.0000    0 1.0000    0 1.0000
    2      4 '1 '  0.05811  0.17632 0.03400    0.00    0.00    0.00   0.00000   0.00000   0.00000   0.00000 1 1    0.0    1 1.0000    0 1.0000    0 1.0000    0 1.0000
    2      5 '1 '  0.05695  0.17388 0.03460    0.00    0.00    0.00   0.00000   0.00000   0.00000   0.00000 1 1    0.0    1 1.0000    0 1.0000    0 1.0000    0 1.0000
    3      4 '1 '  0.06701  0.17103 0.01280    0.00    0.00    0.00   0.00000   0.00000   0.00000   0.00000 1 1    0.0    1 1.0000    0 1.0000    0 1.0000    0 1.0000
    4      5 '1 '  0.01335  0.04211 0.00000    0.00    0.00    0.00   0.00000   0.00000   0.00000   0.00000 1 1    0.0    1 1.0000    0 1.0000    0 1.0000    0 1.0000
    6     11 '1 '  0.09498  0.19890 0.00000    0.00    0.00    0.00   0.00000   0.00000   0.00000   0.00000 1 1    0.0    1 1.0000    0 1.0000    0 1.0000    0 1.0000
    6     12 '1 '  0.12291  0.25581 0.00000    0.00    0.00    0.00   0.00000   0.00000   0.00000   0.00000 1 1    0.0    1 1.0000    0 1.0000    0 1.0000    0 1.0000
    6     13 '1 '  0.06615  0.13027 0.00000    0.00    0.00    0.00   0.00000   0.00000   0.00000   0.00000 1 1    0.0    1 1.0000    0 1.0000    0 1.0000    0 1.0000
    7      8 '1 '  0.00000  0.17615 0.00000    0.00    0.00    0.00   0.00000   0.00000   0.00000   0.00000 1 1    0.0    1 1.0000    0 1.0000    0 1.0000    0 1.0000
    7      9 '1 '  0.00000  0.11001 0.00000    0.00    0.00    0.00   0.00000   0.00000   0.00000   0.00000 1 1    0.0    1 1.0000    0 1.0000    0 1.0000    0 1.0000
    9     10 '1 '  0.03181  0.08450 0.00000    0.00    0.00    0.00   0.00000   0.00000   0.00000   0.00000 1 1    0.0    1 1.0000    0 1.0000    0 1.0000    0 1.0000
    9     14 '1 '  0.12711  0.27038 0.00000    0.00    0.00    0.00   0.00000   0.00000   0.00000   0.00000 1 1    0.0    1 1.0000    0 1.0000    0 1.0000    0 1.0000
   10     11 '1 '  0.08205  0.19207 0.00000    0.00    0.00    0.00   0.00000   0.00000   0.00000   0.00000 1 1    0.0    1 1.0000    0 1.0000    0 1.0000    0 1.0000
   12     13 '1 '  0.22092  0.19988 0.00000    0.00    0.00    0.00   0.00000   0.00000   0.00000   0.00000 1 1    0.0    1 1.0000    0 1.0000    0 1.0000    0 1.0000
   13     14 '1 '  0.17093  0.34802 0.00000    0.00    0.00    0.00   0.00000   0.00000   0.00000   0.00000 1 1    0.0    1 1.0000    0 1.0000    0 1.0000    0 1.0000
0 / END OF BRANCH DATA, BEGIN TRANSFORMER DATA
    4     7     0 '1 ' 1 1 1   0.00000   0.00000 2 '        ' 1    1 1.0000    0 1.0000    0 1.0000    0 1.0000
 0.00000  0.20912  100.00
0.97800   0.000    0.000    0.00    0.00    0.00 0      0  1.50000  0.51000  1.50000  0.51000 159  0  0.00000  0.00000
1.00000   0.000
    4     9     0 '1 ' 1 1 1   0.00000   0.00000 2 '        ' 1    1 1.0000    0 1.0000    0 1.0000    0 1.0000
 0.00000  0.55618  100.00
0.96900   0.000    0.000    0.00    0.00    0.00 0      0  1.50000  0.51000  1.50000  0.51000 159  0  0.00000  0.00000
1.00000   0.000
    5     6     0 '1 ' 1 1 1   0.00000   0.00000 2 '        ' 1    1 1.0000    0 1.0000    0 1.0000    0 1.0000
 0.00000  0.25202  100.00
0.93200   0.000    0.000    0.00    0.00    0.00 0      0  1.50000  0.51000  1.50000  0.51000 159  0  0.00000  0.00000
1.00000   0.000
0 / END OF TRANSFORMER DATA, BEGIN AREA DATA
   1     2      0.000    999.990 'IEEE14      '
0 / END OF AREA DATA, BEGIN TWO-TERMINAL DC DATA
0 / END OF TWO-TERMINAL DC DATA, BEGIN VOLTAGE SOURCE CONVERTER DATA
0 / END OF VOLTAGE SOURCE CONVERTER DATA, BEGIN IMPEDANCE CORRECTION DATA
0 / END OF IMPEDANCE CORRECTION DATA, BEGIN MULTI-TERMINAL DC DATA
0 / END OF MULTI-TERMINAL DC DATA, BEGIN MULTI-SECTION LINE DATA
0 / END OF MULTI-SECTION LINE DATA, BEGIN ZONE DATA
   1 'IEEE 14 '
0 / END OF ZONE DATA, BEGIN INTER-AREA TRANSFER DATA
0 / END OF INTER-AREA TRANSFER DATA, BEGIN OWNER DATA
    1 '1'
0 / END OF OWNER DATA, BEGIN FACTS CONTROL DEVICE DATA
0 / END OF FACTS CONTROL DEVICE DATA, BEGIN SWITCHED SHUNT DATA
0 /END OF SWITCHED SHUNT DATA, BEGIN GNE DEVICE DATA
0 /END OF GNE DEVICE DATA, BEGIN INDUCTION MACHINE DATA
0 /END OF INDUCTION MACHINE DATA
Q
